<?xml version="1.0" encoding="UTF-8"?>

<!-- generated on 2026-03-30T20:30:58.189845+07:00 by Eclipse SUMO netconvert 1.25.0
<netconvertConfiguration xmlns:xsi="http://www.w3.org/2001/XMLSchema-instance" xsi:noNamespaceSchemaLocation="http://sumo.dlr.de/xsd/netconvertConfiguration.xsd">

    <input>
        <osm-files value="data/map.osm"/>
    </input>

    <output>
        <output-file value="network/map.net.xml"/>
    </output>

    <projection>
        <proj.utm value="true"/>
    </projection>

    <tls_building>
        <tls.guess value="true"/>
    </tls_building>

    <junctions>
        <junctions.join value="true"/>
    </junctions>

</netconvertConfiguration>
-->

<net version="1.20" junctionCornerDetail="5" limitTurnSpeed="5.50" xmlns:xsi="http://www.w3.org/2001/XMLSchema-instance" xsi:noNamespaceSchemaLocation="http://sumo.dlr.de/xsd/net_file.xsd">

    <location netOffset="-682548.00,-1189366.65" convBoundary="0.00,0.00,1862.42,1332.00" origBoundary="106.625146,10.746808,106.713537,10.819208" projParameter="+proj=utm +zone=48 +ellps=WGS84 +datum=WGS84 +units=m +no_defs"/>

    <type id="highway.footway" priority="1" numLanes="1" speed="2.78" allow="pedestrian" oneway="1" width="2.00"/>
    <type id="highway.path" priority="1" numLanes="1" speed="5.56" allow="pedestrian bicycle" oneway="0" width="2.00"/>
    <type id="highway.primary" priority="12" numLanes="2" speed="27.78" disallow="tram rail_urban rail rail_electric rail_fast ship container cable_car subway aircraft wheelchair scooter drone" oneway="0"/>
    <type id="highway.primary_link" priority="7" numLanes="1" speed="22.22" disallow="tram rail_urban rail rail_electric rail_fast ship container cable_car subway aircraft wheelchair scooter drone" oneway="0"/>
    <type id="highway.residential" priority="3" numLanes="1" speed="13.89" disallow="tram rail_urban rail rail_electric rail_fast ship container cable_car subway aircraft wheelchair scooter drone" oneway="0"/>
    <type id="highway.secondary" priority="11" numLanes="1" speed="27.78" disallow="tram rail_urban rail rail_electric rail_fast ship container cable_car subway aircraft wheelchair scooter drone" oneway="0"/>
    <type id="highway.service" priority="1" numLanes="1" speed="5.56" allow="pedestrian delivery bicycle" oneway="0"/>
    <type id="highway.tertiary" priority="10" numLanes="1" speed="22.22" disallow="tram rail_urban rail rail_electric rail_fast ship container cable_car subway aircraft wheelchair scooter drone" oneway="0"/>

    <edge id=":10134661821_0" function="internal">
        <lane id=":10134661821_0_0" index="0" allow="pedestrian delivery bicycle" speed="3.65" length="4.67" shape="889.32,555.88 890.16,557.06 890.25,557.95 889.59,558.55 888.18,558.88"/>
    </edge>
    <edge id=":10595925906_0" function="internal">
        <lane id=":10595925906_0_0" index="0" allow="pedestrian delivery bicycle" speed="5.56" length="8.74" shape="1155.78,261.63 1153.43,260.52 1151.80,259.81 1150.13,259.22 1147.66,258.43"/>
    </edge>
    <edge id=":10595925906_1" function="internal">
        <lane id=":10595925906_1_0" index="0" allow="pedestrian delivery bicycle" speed="5.56" length="9.83" shape="1155.78,261.63 1153.63,260.18 1152.38,258.33 1152.01,256.06 1152.53,253.40"/>
    </edge>
    <edge id=":10595925906_2" function="internal">
        <lane id=":10595925906_2_0" index="0" allow="pedestrian delivery bicycle" speed="3.65" length="4.67" shape="1155.78,261.63 1155.04,260.39 1155.03,259.49 1155.73,258.94 1157.16,258.74"/>
    </edge>
    <edge id=":10595925906_3" function="internal">
        <lane id=":10595925906_3_0" index="0" allow="pedestrian delivery bicycle" speed="5.31" length="5.12" shape="1155.57,254.42 1155.28,255.84 1155.45,257.03 1156.08,258.00 1157.16,258.74"/>
    </edge>
    <edge id=":10595925906_4" function="internal">
        <lane id=":10595925906_4_0" index="0" allow="pedestrian delivery bicycle" speed="5.56" length="10.08" shape="1155.57,254.42 1154.33,256.88 1152.60,258.37 1150.38,258.88 1147.66,258.43"/>
    </edge>
    <edge id=":10595925906_5" function="internal">
        <lane id=":10595925906_5_0" index="0" allow="pedestrian delivery bicycle" speed="3.65" length="4.67" shape="1155.57,254.42 1154.43,255.30 1153.54,255.42 1152.91,254.79 1152.53,253.40"/>
    </edge>
    <edge id=":10595925906_6" function="internal">
        <lane id=":10595925906_6_0" index="0" allow="pedestrian delivery bicycle" speed="5.06" length="4.98" shape="1148.63,255.38 1149.97,255.60 1151.07,255.35 1151.92,254.61 1152.53,253.40"/>
    </edge>
    <edge id=":10595925906_7" function="internal">
        <lane id=":10595925906_7_0" index="0" allow="pedestrian delivery bicycle" speed="5.56" length="9.19" shape="1148.63,255.38 1151.22,256.21 1152.98,256.84 1154.70,257.57 1157.16,258.74"/>
    </edge>
    <edge id=":10595925906_8" function="internal">
        <lane id=":10595925906_8_0" index="0" allow="pedestrian delivery bicycle" speed="3.65" length="4.67" shape="1148.63,255.38 1149.53,256.51 1149.67,257.39 1149.04,258.03 1147.66,258.43"/>
    </edge>
    <edge id=":10595925907_0" function="internal">
        <lane id=":10595925907_0_0" index="0" allow="pedestrian delivery bicycle" speed="5.56" length="7.65" shape="1174.42,265.35 1173.23,267.07 1171.77,268.01 1170.04,268.16 1168.05,267.53"/>
    </edge>
    <edge id=":10595925907_1" function="internal">
        <lane id=":10595925907_1_0" index="0" allow="pedestrian delivery bicycle" speed="3.91" length="2.55" shape="1169.43,264.64 1170.10,264.85 1170.68,264.80 1171.16,264.49 1171.56,263.92"/>
    </edge>
    <edge id=":10595925909_0" function="internal">
        <lane id=":10595925909_0_0" index="0" allow="pedestrian delivery bicycle" speed="5.56" length="9.46" shape="1202.09,255.29 1201.02,257.88 1200.40,259.70 1199.85,261.54 1199.02,264.22"/>
    </edge>
    <edge id=":10595925909_1" function="internal">
        <lane id=":10595925909_1_0" index="0" allow="pedestrian delivery bicycle" speed="5.56" length="10.47" shape="1202.09,255.29 1200.57,257.83 1198.67,259.32 1196.37,259.74 1193.69,259.09"/>
    </edge>
    <edge id=":10595925909_2" function="internal">
        <lane id=":10595925909_2_0" index="0" allow="pedestrian delivery bicycle" speed="3.66" length="4.70" shape="1202.09,255.29 1200.96,256.20 1200.07,256.34 1199.42,255.71 1199.02,254.32"/>
    </edge>
    <edge id=":10595925909_3" function="internal">
        <lane id=":10595925909_3_0" index="0" allow="pedestrian delivery bicycle" speed="5.12" length="5.11" shape="1194.90,256.13 1196.22,256.45 1197.35,256.26 1198.28,255.55 1199.02,254.32"/>
    </edge>
    <edge id=":10595925909_4" function="internal">
        <lane id=":10595925909_4_0" index="0" allow="pedestrian delivery bicycle" speed="5.56" length="10.19" shape="1194.90,256.13 1197.39,257.55 1198.90,259.37 1199.45,261.59 1199.02,264.22"/>
    </edge>
    <edge id=":10595925909_5" function="internal">
        <lane id=":10595925909_5_0" index="0" allow="pedestrian delivery bicycle" speed="3.65" length="4.67" shape="1194.90,256.13 1195.71,257.33 1195.78,258.22 1195.10,258.81 1193.69,259.09"/>
    </edge>
    <edge id=":10595925909_6" function="internal">
        <lane id=":10595925909_6_0" index="0" allow="pedestrian delivery bicycle" speed="5.30" length="5.31" shape="1195.97,263.24 1196.17,261.92 1195.86,260.78 1195.03,259.84 1193.69,259.09"/>
    </edge>
    <edge id=":10595925909_7" function="internal">
        <lane id=":10595925909_7_0" index="0" allow="pedestrian delivery bicycle" speed="5.56" length="9.43" shape="1195.97,263.24 1196.80,260.56 1197.34,258.72 1197.96,256.91 1199.02,254.32"/>
    </edge>
    <edge id=":10595925909_8" function="internal">
        <lane id=":10595925909_8_0" index="0" allow="pedestrian delivery bicycle" speed="3.65" length="4.67" shape="1195.97,263.24 1197.10,262.34 1197.99,262.21 1198.63,262.84 1199.02,264.22"/>
    </edge>
    <edge id=":10732239248_0" function="internal">
        <lane id=":10732239248_0_0" index="0" allow="pedestrian delivery bicycle" speed="3.65" length="4.67" shape="504.97,149.77 505.97,148.73 506.82,148.48 507.54,149.01 508.11,150.33"/>
    </edge>
    <edge id=":11000969570_0" function="internal">
        <lane id=":11000969570_0_0" index="0" allow="pedestrian delivery bicycle" speed="5.56" length="8.31" shape="1017.39,626.14 1016.41,628.40 1015.86,629.99 1015.37,631.61 1014.58,633.95"/>
    </edge>
    <edge id=":11000969570_1" function="internal">
        <lane id=":11000969570_1_0" index="0" allow="pedestrian delivery bicycle" speed="5.56" length="13.48" shape="1017.39,626.14 1015.62,628.45 1013.05,629.48 1009.69,629.23 1005.54,627.69"/>
    </edge>
    <edge id=":11000969570_2" function="internal">
        <lane id=":11000969570_2_0" index="0" allow="pedestrian delivery bicycle" speed="3.65" length="4.68" shape="1017.39,626.14 1016.19,626.93 1015.29,626.99 1014.71,626.31 1014.44,624.89"/>
    </edge>
    <edge id=":11000969570_3" function="internal">
        <lane id=":11000969570_3_0" index="0" allow="pedestrian delivery bicycle" speed="5.45" length="6.09" shape="1009.17,625.88 1010.97,626.53 1012.45,626.58 1013.61,626.03 1014.44,624.89"/>
    </edge>
    <edge id=":11000969570_4" function="internal">
        <lane id=":11000969570_4_0" index="0" allow="pedestrian delivery bicycle" speed="5.56" length="10.73" shape="1009.17,625.88 1012.17,627.67 1014.08,629.61 1014.88,631.70 1014.58,633.95"/>
    </edge>
    <edge id=":11000969570_5" function="internal">
        <lane id=":11000969570_5_0" index="0" allow="pedestrian delivery bicycle" speed="3.96" length="5.92" shape="1009.17,625.88 1008.94,627.70 1008.26,628.60 1007.12,628.60 1005.54,627.69"/>
    </edge>
    <edge id=":11000969570_6" function="internal">
        <lane id=":11000969570_6_0" index="0" allow="pedestrian delivery bicycle" speed="5.56" length="8.77" shape="1011.35,633.49 1011.34,632.17 1010.36,630.76 1008.43,629.27 1005.54,627.69"/>
    </edge>
    <edge id=":11000969570_7" function="internal">
        <lane id=":11000969570_7_0" index="0" allow="pedestrian delivery bicycle" speed="5.56" length="9.14" shape="1011.35,633.49 1014.44,624.89"/>
    </edge>
    <edge id=":11000969570_8" function="internal">
        <lane id=":11000969570_8_0" index="0" allow="pedestrian delivery bicycle" speed="3.67" length="4.77" shape="1011.35,633.49 1012.33,632.39 1013.19,632.11 1013.94,632.62 1014.58,633.95"/>
    </edge>
    <edge id=":11000969573_0" function="internal">
        <lane id=":11000969573_0_0" index="0" allow="pedestrian delivery bicycle" speed="5.02" length="5.02" shape="1024.65,616.83 1023.32,616.47 1022.20,616.63 1021.29,617.30 1020.59,618.49"/>
    </edge>
    <edge id=":11000969573_1" function="internal">
        <lane id=":11000969573_1_0" index="0" allow="pedestrian delivery bicycle" speed="5.56" length="9.32" shape="1024.65,616.83 1016.17,612.95"/>
    </edge>
    <edge id=":11000969573_2" function="internal">
        <lane id=":11000969573_2_0" index="0" allow="pedestrian delivery bicycle" speed="3.65" length="4.67" shape="1024.65,616.83 1023.86,615.62 1023.80,614.73 1024.49,614.15 1025.90,613.88"/>
    </edge>
    <edge id=":11000969573_3" function="internal">
        <lane id=":11000969573_3_0" index="0" allow="pedestrian delivery bicycle" speed="5.56" length="9.16" shape="1017.57,610.08 1025.90,613.88"/>
    </edge>
    <edge id=":11000969573_4" function="internal">
        <lane id=":11000969573_4_0" index="0" allow="pedestrian delivery bicycle" speed="5.56" length="10.05" shape="1017.57,610.08 1019.78,611.59 1021.02,613.50 1021.29,615.80 1020.59,618.49"/>
    </edge>
    <edge id=":11000969573_5" function="internal">
        <lane id=":11000969573_5_0" index="0" allow="pedestrian delivery bicycle" speed="3.65" length="4.67" shape="1017.57,610.08 1018.30,611.32 1018.31,612.22 1017.60,612.76 1016.17,612.95"/>
    </edge>
    <edge id=":11000969573_6" function="internal">
        <lane id=":11000969573_6_0" index="0" allow="pedestrian delivery bicycle" speed="5.21" length="5.13" shape="1017.63,617.28 1018.00,615.88 1017.88,614.69 1017.27,613.72 1016.17,612.95"/>
    </edge>
    <edge id=":11000969573_7" function="internal">
        <lane id=":11000969573_7_0" index="0" allow="pedestrian delivery bicycle" speed="5.56" length="10.23" shape="1017.63,617.28 1019.05,614.85 1020.91,613.48 1023.19,613.16 1025.90,613.88"/>
    </edge>
    <edge id=":11000969573_8" function="internal">
        <lane id=":11000969573_8_0" index="0" allow="pedestrian delivery bicycle" speed="3.65" length="4.67" shape="1017.63,617.28 1018.83,616.47 1019.72,616.40 1020.31,617.08 1020.59,618.49"/>
    </edge>
    <edge id=":11058794844_0" function="internal">
        <lane id=":11058794844_0_0" index="0" allow="pedestrian delivery bicycle" speed="5.56" length="9.40" shape="598.44,500.35 596.12,509.47"/>
    </edge>
    <edge id=":11058794844_1" function="internal">
        <lane id=":11058794844_1_0" index="0" allow="pedestrian delivery bicycle" speed="5.56" length="10.17" shape="598.44,500.35 597.39,502.86 595.75,504.46 593.52,505.16 590.70,504.96"/>
    </edge>
    <edge id=":11058794844_2" function="internal">
        <lane id=":11058794844_2_0" index="0" allow="pedestrian delivery bicycle" speed="3.65" length="4.67" shape="598.44,500.35 597.37,501.32 596.49,501.51 595.81,500.92 595.33,499.56"/>
    </edge>
    <edge id=":11058794844_3" function="internal">
        <lane id=":11058794844_3_0" index="0" allow="pedestrian delivery bicycle" speed="5.18" length="5.16" shape="591.36,501.83 592.82,501.94 593.97,501.60 594.81,500.81 595.33,499.56"/>
    </edge>
    <edge id=":11058794844_4" function="internal">
        <lane id=":11058794844_4_0" index="0" allow="pedestrian delivery bicycle" speed="5.56" length="10.36" shape="591.36,501.83 594.04,502.81 595.73,504.41 596.42,506.63 596.12,509.47"/>
    </edge>
    <edge id=":11058794844_5" function="internal">
        <lane id=":11058794844_5_0" index="0" allow="pedestrian delivery bicycle" speed="3.65" length="4.67" shape="591.36,501.83 592.37,502.86 592.60,503.72 592.04,504.42 590.70,504.96"/>
    </edge>
    <edge id=":11058794844_6" function="internal">
        <lane id=":11058794844_6_0" index="0" allow="pedestrian delivery bicycle" speed="5.00" length="5.05" shape="593.02,508.68 593.17,507.30 592.83,506.22 592.01,505.44 590.70,504.96"/>
    </edge>
    <edge id=":11058794844_7" function="internal">
        <lane id=":11058794844_7_0" index="0" allow="pedestrian delivery bicycle" speed="5.56" length="9.40" shape="593.02,508.68 595.33,499.56"/>
    </edge>
    <edge id=":11058794844_8" function="internal">
        <lane id=":11058794844_8_0" index="0" allow="pedestrian delivery bicycle" speed="3.65" length="4.67" shape="593.02,508.68 594.09,507.71 594.97,507.52 595.64,508.11 596.12,509.47"/>
    </edge>
    <edge id=":11058794845_0" function="internal">
        <lane id=":11058794845_0_0" index="0" allow="pedestrian delivery bicycle" speed="5.56" length="8.77" shape="622.27,450.80 621.30,453.21 620.70,454.89 620.21,456.61 619.56,459.13"/>
    </edge>
    <edge id=":11058794845_1" function="internal">
        <lane id=":11058794845_1_0" index="0" allow="pedestrian delivery bicycle" speed="5.56" length="9.86" shape="622.27,450.80 620.97,453.00 619.19,454.36 616.94,454.89 614.21,454.58"/>
    </edge>
    <edge id=":11058794845_2" function="internal">
        <lane id=":11058794845_2_0" index="0" allow="pedestrian delivery bicycle" speed="3.65" length="4.67" shape="622.27,450.80 621.07,451.61 620.18,451.68 619.59,451.01 619.30,449.60"/>
    </edge>
    <edge id=":11058794845_3" function="internal">
        <lane id=":11058794845_3_0" index="0" allow="pedestrian delivery bicycle" speed="5.39" length="5.22" shape="614.97,451.47 616.46,451.65 617.68,451.40 618.62,450.71 619.30,449.60"/>
    </edge>
    <edge id=":11058794845_4" function="internal">
        <lane id=":11058794845_4_0" index="0" allow="pedestrian delivery bicycle" speed="5.56" length="10.20" shape="614.97,451.47 617.57,452.52 619.20,454.14 619.86,456.34 619.56,459.13"/>
    </edge>
    <edge id=":11058794845_5" function="internal">
        <lane id=":11058794845_5_0" index="0" allow="pedestrian delivery bicycle" speed="3.65" length="4.67" shape="614.97,451.47 615.94,452.53 616.14,453.41 615.56,454.09 614.21,454.58"/>
    </edge>
    <edge id=":11058794845_6" function="internal">
        <lane id=":11058794845_6_0" index="0" allow="pedestrian delivery bicycle" speed="5.03" length="5.01" shape="616.46,458.34 616.61,456.97 616.28,455.89 615.48,455.09 614.21,454.58"/>
    </edge>
    <edge id=":11058794845_7" function="internal">
        <lane id=":11058794845_7_0" index="0" allow="pedestrian delivery bicycle" speed="5.56" length="9.21" shape="616.46,458.34 617.14,455.69 617.66,453.89 618.29,452.13 619.30,449.60"/>
    </edge>
    <edge id=":11058794845_8" function="internal">
        <lane id=":11058794845_8_0" index="0" allow="pedestrian delivery bicycle" speed="3.65" length="4.67" shape="616.46,458.34 617.53,457.37 618.41,457.18 619.09,457.77 619.56,459.13"/>
    </edge>
    <edge id=":11058794847_0" function="internal">
        <lane id=":11058794847_0_0" index="0" allow="pedestrian delivery bicycle" speed="4.89" length="5.19" shape="597.98,449.09 596.56,448.77 595.45,449.01 594.63,449.81 594.12,451.17"/>
    </edge>
    <edge id=":11058794847_1" function="internal">
        <lane id=":11058794847_1_0" index="0" allow="pedestrian delivery bicycle" speed="5.56" length="9.71" shape="597.98,449.09 595.29,448.06 593.42,447.43 591.50,446.95 588.67,446.40"/>
    </edge>
    <edge id=":11058794847_2" function="internal">
        <lane id=":11058794847_2_0" index="0" allow="pedestrian delivery bicycle" speed="3.65" length="4.67" shape="597.98,449.09 597.15,447.91 597.06,447.02 597.72,446.42 599.13,446.10"/>
    </edge>
    <edge id=":11058794847_3" function="internal">
        <lane id=":11058794847_3_0" index="0" allow="pedestrian delivery bicycle" speed="5.56" length="10.29" shape="589.27,443.25 592.23,443.84 594.29,444.36 596.31,445.03 599.13,446.10"/>
    </edge>
    <edge id=":11058794847_4" function="internal">
        <lane id=":11058794847_4_0" index="0" allow="pedestrian delivery bicycle" speed="5.56" length="10.65" shape="589.27,443.25 591.95,444.20 593.65,445.83 594.37,448.16 594.12,451.17"/>
    </edge>
    <edge id=":11058794847_5" function="internal">
        <lane id=":11058794847_5_0" index="0" allow="pedestrian delivery bicycle" speed="3.65" length="4.67" shape="589.27,443.25 590.30,444.26 590.55,445.12 590.00,445.83 588.67,446.40"/>
    </edge>
    <edge id=":11058794847_6" function="internal">
        <lane id=":11058794847_6_0" index="0" allow="pedestrian delivery bicycle" speed="5.15" length="5.39" shape="591.00,450.48 591.14,448.91 590.80,447.71 589.98,446.87 588.67,446.40"/>
    </edge>
    <edge id=":11058794847_7" function="internal">
        <lane id=":11058794847_7_0" index="0" allow="pedestrian delivery bicycle" speed="5.56" length="10.94" shape="591.00,450.48 592.08,447.61 593.79,445.93 596.14,445.42 599.13,446.10"/>
    </edge>
    <edge id=":11058794847_8" function="internal">
        <lane id=":11058794847_8_0" index="0" allow="pedestrian delivery bicycle" speed="3.65" length="4.67" shape="591.00,450.48 592.04,449.48 592.90,449.26 593.60,449.82 594.12,451.17"/>
    </edge>
    <edge id=":11058794848_0" function="internal">
        <lane id=":11058794848_0_0" index="0" allow="pedestrian delivery bicycle" speed="5.56" length="8.32" shape="573.29,446.28 573.05,443.82 572.96,442.14 572.96,440.45 573.04,437.98"/>
    </edge>
    <edge id=":11058794848_1" function="internal">
        <lane id=":11058794848_1_0" index="0" allow="pedestrian delivery bicycle" speed="5.56" length="10.06" shape="573.29,446.28 573.50,443.85 574.72,442.25 576.96,441.49 580.21,441.56"/>
    </edge>
    <edge id=":11058794848_2" function="internal">
        <lane id=":11058794848_2_0" index="0" allow="pedestrian delivery bicycle" speed="3.74" length="5.01" shape="573.29,446.28 574.45,445.26 575.39,445.07 576.11,445.71 576.60,447.17"/>
    </edge>
    <edge id=":11058794848_3" function="internal">
        <lane id=":11058794848_3_0" index="0" allow="pedestrian delivery bicycle" speed="4.66" length="4.85" shape="579.80,444.73 578.29,444.71 577.25,445.11 576.69,445.93 576.60,447.17"/>
    </edge>
    <edge id=":11058794848_4" function="internal">
        <lane id=":11058794848_4_0" index="0" allow="pedestrian delivery bicycle" speed="5.56" length="10.65" shape="579.80,444.73 576.77,443.97 574.64,442.59 573.39,440.59 573.04,437.98"/>
    </edge>
    <edge id=":11058794848_5" function="internal">
        <lane id=":11058794848_5_0" index="0" allow="pedestrian delivery bicycle" speed="3.65" length="4.67" shape="579.80,444.73 578.71,443.78 578.42,442.94 578.92,442.20 580.21,441.56"/>
    </edge>
    <edge id=":11058794848_6" function="internal">
        <lane id=":11058794848_6_0" index="0" allow="pedestrian delivery bicycle" speed="5.56" length="5.86" shape="576.24,438.08 576.45,439.40 577.18,440.43 578.44,441.14 580.21,441.56"/>
    </edge>
    <edge id=":11058794848_7" function="internal">
        <lane id=":11058794848_7_0" index="0" allow="pedestrian delivery bicycle" speed="5.56" length="9.11" shape="576.24,438.08 576.17,440.78 576.19,442.63 576.33,444.48 576.60,447.17"/>
    </edge>
    <edge id=":11058794848_8" function="internal">
        <lane id=":11058794848_8_0" index="0" allow="pedestrian delivery bicycle" speed="3.65" length="4.67" shape="576.24,438.08 575.40,439.25 574.59,439.63 573.80,439.20 573.04,437.98"/>
    </edge>
    <edge id=":11058794850_0" function="internal">
        <lane id=":11058794850_0_0" index="0" allow="pedestrian delivery bicycle" speed="5.56" length="8.60" shape="591.61,459.96 590.87,462.38 590.60,464.11 590.59,465.87 590.62,468.43"/>
    </edge>
    <edge id=":11058794850_1" function="internal">
        <lane id=":11058794850_1_0" index="0" allow="pedestrian delivery bicycle" speed="5.56" length="9.65" shape="591.61,459.96 590.42,462.43 588.83,464.12 586.83,465.03 584.44,465.15"/>
    </edge>
    <edge id=":11058794850_2" function="internal">
        <lane id=":11058794850_2_0" index="0" allow="pedestrian delivery bicycle" speed="3.66" length="4.73" shape="591.61,459.96 590.60,461.01 589.73,461.26 589.00,460.72 588.43,459.38"/>
    </edge>
    <edge id=":11058794850_3" function="internal">
        <lane id=":11058794850_3_0" index="0" allow="pedestrian delivery bicycle" speed="5.41" length="4.88" shape="584.77,461.96 586.00,461.91 587.02,461.46 587.82,460.61 588.43,459.38"/>
    </edge>
    <edge id=":11058794850_4" function="internal">
        <lane id=":11058794850_4_0" index="0" allow="pedestrian delivery bicycle" speed="5.56" length="9.74" shape="584.77,461.96 587.35,462.60 589.18,463.89 590.27,465.83 590.62,468.43"/>
    </edge>
    <edge id=":11058794850_5" function="internal">
        <lane id=":11058794850_5_0" index="0" allow="pedestrian delivery bicycle" speed="3.65" length="4.67" shape="584.77,461.96 585.88,462.88 586.20,463.72 585.72,464.48 584.44,465.15"/>
    </edge>
    <edge id=":11058794850_6" function="internal">
        <lane id=":11058794850_6_0" index="0" allow="pedestrian delivery bicycle" speed="5.18" length="4.94" shape="587.42,468.41 587.24,467.10 586.69,466.12 585.75,465.47 584.44,465.15"/>
    </edge>
    <edge id=":11058794850_7" function="internal">
        <lane id=":11058794850_7_0" index="0" allow="pedestrian delivery bicycle" speed="5.56" length="9.17" shape="587.42,468.41 587.38,465.69 587.38,463.80 587.65,461.96 588.43,459.38"/>
    </edge>
    <edge id=":11058794850_8" function="internal">
        <lane id=":11058794850_8_0" index="0" allow="pedestrian delivery bicycle" speed="3.65" length="4.67" shape="587.42,468.41 588.23,467.22 589.03,466.82 589.83,467.23 590.62,468.43"/>
    </edge>
    <edge id=":11058794853_0" function="internal">
        <lane id=":11058794853_0_0" index="0" allow="pedestrian delivery bicycle" speed="3.65" length="4.67" shape="590.57,476.79 589.76,477.98 588.96,478.38 588.16,477.97 587.37,476.77"/>
    </edge>
    <edge id=":11058794857_0" function="internal">
        <lane id=":11058794857_0_0" index="0" allow="pedestrian delivery bicycle" speed="3.65" length="4.67" shape="557.54,452.84 557.97,451.46 558.63,450.85 559.51,451.01 560.62,451.94"/>
    </edge>
    <edge id=":11070387342_0" function="internal">
        <lane id=":11070387342_0_0" index="0" allow="pedestrian delivery bicycle" speed="3.65" length="4.67" shape="1060.86,621.20 1060.05,620.01 1059.98,619.12 1060.65,618.53 1062.06,618.24"/>
    </edge>
    <edge id=":11070387343_0" function="internal">
        <lane id=":11070387343_0_0" index="0" allow="pedestrian delivery bicycle" speed="5.56" length="9.40" shape="1088.45,625.42 1085.01,634.17"/>
    </edge>
    <edge id=":11070387343_1" function="internal">
        <lane id=":11070387343_1_0" index="0" allow="pedestrian delivery bicycle" speed="5.56" length="10.18" shape="1088.45,625.42 1087.07,627.85 1085.25,629.25 1082.98,629.62 1080.27,628.97"/>
    </edge>
    <edge id=":11070387343_2" function="internal">
        <lane id=":11070387343_2_0" index="0" allow="pedestrian delivery bicycle" speed="3.65" length="4.67" shape="1088.45,625.42 1087.27,626.25 1086.38,626.32 1085.78,625.66 1085.47,624.25"/>
    </edge>
    <edge id=":11070387343_3" function="internal">
        <lane id=":11070387343_3_0" index="0" allow="pedestrian delivery bicycle" speed="5.04" length="5.00" shape="1081.45,626.00 1082.79,626.32 1083.90,626.13 1084.80,625.44 1085.47,624.25"/>
    </edge>
    <edge id=":11070387343_4" function="internal">
        <lane id=":11070387343_4_0" index="0" allow="pedestrian delivery bicycle" speed="5.56" length="10.16" shape="1081.45,626.00 1083.87,627.38 1085.27,629.20 1085.65,631.47 1085.01,634.17"/>
    </edge>
    <edge id=":11070387343_5" function="internal">
        <lane id=":11070387343_5_0" index="0" allow="pedestrian delivery bicycle" speed="3.65" length="4.67" shape="1081.45,626.00 1082.27,627.18 1082.35,628.07 1081.68,628.67 1080.27,628.97"/>
    </edge>
    <edge id=":11070387343_6" function="internal">
        <lane id=":11070387343_6_0" index="0" allow="pedestrian delivery bicycle" speed="5.05" length="5.01" shape="1082.03,633.00 1082.35,631.67 1082.16,630.55 1081.47,629.65 1080.27,628.97"/>
    </edge>
    <edge id=":11070387343_7" function="internal">
        <lane id=":11070387343_7_0" index="0" allow="pedestrian delivery bicycle" speed="5.56" length="9.40" shape="1082.03,633.00 1085.47,624.25"/>
    </edge>
    <edge id=":11070387343_8" function="internal">
        <lane id=":11070387343_8_0" index="0" allow="pedestrian delivery bicycle" speed="3.65" length="4.67" shape="1082.03,633.00 1083.22,632.18 1084.11,632.10 1084.70,632.76 1085.01,634.17"/>
    </edge>
    <edge id=":11078026667_0" function="internal">
        <lane id=":11078026667_0_0" index="0" allow="pedestrian delivery bicycle" speed="5.56" length="8.76" shape="753.58,459.35 755.97,459.96 757.45,461.17 758.03,463.00 757.70,465.44"/>
    </edge>
    <edge id=":11078026667_1" function="internal">
        <lane id=":11078026667_1_0" index="0" allow="pedestrian delivery bicycle" speed="3.90" length="2.92" shape="754.62,464.56 754.73,463.75 754.54,463.14 754.04,462.74 753.25,462.53"/>
    </edge>
    <edge id=":11078026668_0" function="internal">
        <lane id=":11078026668_0_0" index="0" allow="pedestrian delivery bicycle" speed="5.56" length="7.57" shape="741.74,461.33 739.73,460.82 738.35,459.80 737.59,458.26 737.45,456.20"/>
    </edge>
    <edge id=":11078026668_1" function="internal">
        <lane id=":11078026668_1_0" index="0" allow="pedestrian delivery bicycle" speed="3.91" length="2.52" shape="740.64,456.43 740.69,457.12 740.94,457.63 741.40,457.98 742.07,458.14"/>
    </edge>
    <edge id=":11078026672_0" function="internal">
        <lane id=":11078026672_0_0" index="0" allow="pedestrian delivery bicycle" speed="5.42" length="5.46" shape="757.06,480.85 755.44,480.75 754.18,481.09 753.25,481.86 752.68,483.05"/>
    </edge>
    <edge id=":11078026672_1" function="internal">
        <lane id=":11078026672_1_0" index="0" allow="pedestrian delivery bicycle" speed="5.56" length="10.70" shape="757.06,480.85 754.22,479.93 752.47,478.33 751.79,476.06 752.19,473.10"/>
    </edge>
    <edge id=":11078026672_2" function="internal">
        <lane id=":11078026672_2_0" index="0" allow="pedestrian delivery bicycle" speed="3.65" length="4.67" shape="757.06,480.85 756.01,479.85 755.75,479.00 756.28,478.28 757.60,477.69"/>
    </edge>
    <edge id=":11078026672_3" function="internal">
        <lane id=":11078026672_3_0" index="0" allow="pedestrian delivery bicycle" speed="4.93" length="5.13" shape="755.26,473.98 755.07,475.40 755.40,476.49 756.24,477.25 757.60,477.69"/>
    </edge>
    <edge id=":11078026672_4" function="internal">
        <lane id=":11078026672_4_0" index="0" allow="pedestrian delivery bicycle" speed="5.56" length="9.44" shape="755.26,473.98 752.68,483.05"/>
    </edge>
    <edge id=":11078026672_5" function="internal">
        <lane id=":11078026672_5_0" index="0" allow="pedestrian delivery bicycle" speed="3.65" length="4.67" shape="755.26,473.98 754.17,474.91 753.29,475.08 752.63,474.48 752.19,473.10"/>
    </edge>
    <edge id=":11078026672_6" function="internal">
        <lane id=":11078026672_6_0" index="0" allow="pedestrian delivery bicycle" speed="5.56" length="9.43" shape="749.60,482.18 752.19,473.10"/>
    </edge>
    <edge id=":11078026672_7" function="internal">
        <lane id=":11078026672_7_0" index="0" allow="pedestrian delivery bicycle" speed="5.56" length="10.22" shape="749.60,482.18 750.70,479.80 752.40,478.26 754.70,477.56 757.60,477.69"/>
    </edge>
    <edge id=":11078026672_8" function="internal">