<?xml version="1.0" encoding="UTF-8"?>

<!-- generated on 2026-04-06T19:10:28.811922+07:00 by Eclipse SUMO netconvert 1.25.0
<netconvertConfiguration xmlns:xsi="http://www.w3.org/2001/XMLSchema-instance" xsi:noNamespaceSchemaLocation="http://sumo.dlr.de/xsd/netconvertConfiguration.xsd">

    <input>
        <osm-files value="data/map2.osm"/>
    </input>

    <output>
        <output-file value="network/map.net.xml"/>
    </output>

    <projection>
        <proj.utm value="true"/>
    </projection>

    <processing>
        <geometry.remove value="true"/>
    </processing>

    <tls_building>
        <tls.discard-simple value="true"/>
        <tls.join value="true"/>
        <tls.guess-signals value="true"/>
    </tls_building>

    <ramp_guessing>
        <ramps.guess value="true"/>
    </ramp_guessing>

    <edge_removal>
        <keep-edges.by-vclass value="passenger"/>
        <remove-edges.by-type value="highway.service,highway.residential,highway.footway,highway.path"/>
    </edge_removal>

    <junctions>
        <no-turnarounds value="true"/>
        <junctions.join value="true"/>
    </junctions>

</netconvertConfiguration>
-->

<net version="1.20" junctionCornerDetail="5" limitTurnSpeed="5.50" xmlns:xsi="http://www.w3.org/2001/XMLSchema-instance" xsi:noNamespaceSchemaLocation="http://sumo.dlr.de/xsd/net_file.xsd">

    <location netOffset="-682502.77,-1188738.77" convBoundary="0.00,0.00,2183.61,1959.88" origBoundary="106.625146,10.746808,106.713537,10.819208" projParameter="+proj=utm +zone=48 +ellps=WGS84 +datum=WGS84 +units=m +no_defs"/>

    <type id="highway.primary" priority="12" numLanes="2" speed="27.78" disallow="tram rail_urban rail rail_electric rail_fast ship container cable_car subway aircraft wheelchair scooter drone" oneway="0"/>
    <type id="highway.primary_link" priority="7" numLanes="1" speed="22.22" disallow="tram rail_urban rail rail_electric rail_fast ship container cable_car subway aircraft wheelchair scooter drone" oneway="0"/>
    <type id="highway.secondary" priority="11" numLanes="1" speed="27.78" disallow="tram rail_urban rail rail_electric rail_fast ship container cable_car subway aircraft wheelchair scooter drone" oneway="0"/>
    <type id="highway.secondary_link" priority="6" numLanes="1" speed="22.22" disallow="tram rail_urban rail rail_electric rail_fast ship container cable_car subway aircraft wheelchair scooter drone" oneway="0"/>
    <type id="highway.tertiary" priority="10" numLanes="1" speed="22.22" disallow="tram rail_urban rail rail_electric rail_fast ship container cable_car subway aircraft wheelchair scooter drone" oneway="0"/>

    <edge id=":11998294099_0" function="internal">
        <lane id=":11998294099_0_0" index="0" disallow="tram rail_urban rail rail_electric rail_fast ship container cable_car subway aircraft wheelchair scooter drone" speed="7.75" length="23.92" shape="354.29,1706.57 352.14,1712.76 347.46,1716.19 342.00,1716.17 337.55,1711.98"/>
        <lane id=":11998294099_0_1" index="1" disallow="tram rail_urban rail rail_electric rail_fast ship container cable_car subway aircraft wheelchair scooter drone" speed="7.08" length="19.65" shape="354.29,1706.57 352.50,1711.57 348.60,1714.22 344.07,1714.02 340.39,1710.50"/>
    </edge>
    <edge id=":11998294099_2" function="internal">
        <lane id=":11998294099_2_0" index="0" disallow="tram rail_urban rail rail_electric rail_fast ship container cable_car subway aircraft wheelchair scooter drone" speed="5.53" length="11.27" shape="346.07,1707.56 348.12,1710.84 349.64,1711.75 350.63,1710.29 351.09,1706.45"/>
    </edge>
    <edge id=":11998476551_0" function="internal">
        <lane id=":11998476551_0_0" index="0" disallow="tram rail_urban rail rail_electric rail_fast ship container cable_car subway aircraft wheelchair scooter drone" speed="5.48" length="9.70" shape="180.51,1477.21 178.50,1474.86 176.84,1474.27 175.53,1475.44 174.56,1478.37"/>
    </edge>
    <edge id=":11998476551_1" function="internal">
        <lane id=":11998476551_1_0" index="0" disallow="tram rail_urban rail rail_electric rail_fast ship container cable_car subway aircraft wheelchair scooter drone" speed="27.78" length="32.82" shape="180.51,1477.21 162.55,1449.69"/>
        <lane id=":11998476551_1_1" index="1" disallow="tram rail_urban rail rail_electric rail_fast ship container cable_car subway aircraft wheelchair scooter drone" speed="27.78" length="32.82" shape="183.16,1475.42 165.26,1447.97"/>
    </edge>
    <edge id=":11998476551_3" function="internal">
        <lane id=":11998476551_3_0" index="0" disallow="tram rail_urban rail rail_electric rail_fast ship container cable_car subway aircraft wheelchair scooter drone" speed="18.63" length="9.23" shape="183.16,1475.42 178.77,1467.53 178.71,1467.34"/>
    </edge>
    <edge id=":11998476551_14" function="internal">
        <lane id=":11998476551_14_0" index="0" disallow="tram rail_urban rail rail_electric rail_fast ship container cable_car subway aircraft wheelchair scooter drone" speed="18.63" length="24.64" shape="178.71,1467.34 176.15,1459.53 175.29,1451.42 176.19,1443.20"/>
    </edge>
    <edge id=":11998476551_4" function="internal">
        <lane id=":11998476551_4_0" index="0" disallow="tram rail_urban rail rail_electric rail_fast ship container cable_car subway aircraft wheelchair scooter drone" speed="17.70" length="30.54" shape="179.42,1443.44 179.07,1449.46 180.46,1456.20 183.59,1463.67 188.47,1471.85"/>
    </edge>
    <edge id=":11998476551_5" function="internal">
        <lane id=":11998476551_5_0" index="0" disallow="tram rail_urban rail rail_electric rail_fast ship container cable_car subway aircraft wheelchair scooter drone" speed="18.05" length="35.27" shape="179.42,1443.44 174.56,1478.37"/>
    </edge>
    <edge id=":11998476551_6" function="internal">
        <lane id=":11998476551_6_0" index="0" disallow="tram rail_urban rail rail_electric rail_fast ship container cable_car subway aircraft wheelchair scooter drone" speed="7.47" length="2.66" shape="179.42,1443.44 178.31,1445.85"/>
    </edge>
    <edge id=":11998476551_15" function="internal">
        <lane id=":11998476551_15_0" index="0" disallow="tram rail_urban rail rail_electric rail_fast ship container cable_car subway aircraft wheelchair scooter drone" speed="7.47" length="16.99" shape="178.31,1445.85 177.09,1448.53 173.34,1451.35 169.09,1451.34 165.26,1447.97"/>
    </edge>
    <edge id=":11998476551_7" function="internal">
        <lane id=":11998476551_7_0" index="0" disallow="tram rail_urban rail rail_electric rail_fast ship container cable_car subway aircraft wheelchair scooter drone" speed="5.35" length="9.25" shape="170.66,1444.54 172.47,1446.76 174.00,1447.29 175.24,1446.10 176.19,1443.20"/>
    </edge>
    <edge id=":11998476551_8" function="internal">
        <lane id=":11998476551_8_0" index="0" disallow="tram rail_urban rail rail_electric rail_fast ship container cable_car subway aircraft wheelchair scooter drone" speed="27.78" length="32.65" shape="170.66,1444.54 188.47,1471.85"/>
        <lane id=":11998476551_8_1" index="1" disallow="tram rail_urban rail rail_electric rail_fast ship container cable_car subway aircraft wheelchair scooter drone" speed="27.78" length="32.65" shape="167.96,1446.25 185.81,1473.64"/>
    </edge>
    <edge id=":11998476551_10" function="internal">
        <lane id=":11998476551_10_0" index="0" disallow="tram rail_urban rail rail_electric rail_fast ship container cable_car subway aircraft wheelchair scooter drone" speed="19.04" length="4.28" shape="167.96,1446.25 169.67,1450.18"/>
    </edge>
    <edge id=":11998476551_16" function="internal">
        <lane id=":11998476551_16_0" index="0" disallow="tram rail_urban rail rail_electric rail_fast ship container cable_car subway aircraft wheelchair scooter drone" speed="19.04" length="28.88" shape="169.67,1450.18 171.39,1454.14 173.65,1463.64 174.71,1472.48 174.56,1478.37"/>
    </edge>
    <edge id=":11998476551_11" function="internal">
        <lane id=":11998476551_11_0" index="0" disallow="tram rail_urban rail rail_electric rail_fast ship container cable_car subway aircraft wheelchair scooter drone" speed="18.04" length="29.75" shape="171.43,1477.72 171.23,1472.46 169.39,1465.03 166.35,1456.94 162.55,1449.69"/>
    </edge>
    <edge id=":11998476551_12" function="internal">
        <lane id=":11998476551_12_0" index="0" disallow="tram rail_urban rail rail_electric rail_fast ship container cable_car subway aircraft wheelchair scooter drone" speed="18.05" length="34.85" shape="171.43,1477.72 176.19,1443.20"/>
    </edge>
    <edge id=":11998476551_13" function="internal">
        <lane id=":11998476551_13_0" index="0" disallow="tram rail_urban rail rail_electric rail_fast ship container cable_car subway aircraft wheelchair scooter drone" speed="8.22" length="4.13" shape="171.43,1477.72 172.69,1473.79"/>
    </edge>
    <edge id=":11998476551_17" function="internal">
        <lane id=":11998476551_17_0" index="0" disallow="tram rail_urban rail rail_electric rail_fast ship container cable_car subway aircraft wheelchair scooter drone" speed="8.22" length="19.76" shape="172.69,1473.79 173.85,1470.17 177.05,1466.98 181.04,1468.13 185.81,1473.64"/>
    </edge>
    <edge id=":12001952420_0" function="internal">
        <lane id=":12001952420_0_0" index="0" disallow="tram rail_urban rail rail_electric rail_fast ship container cable_car subway aircraft wheelchair scooter drone" speed="5.98" length="11.61" shape="329.14,673.78 326.24,670.60 323.97,669.39 322.33,670.15 321.32,672.89"/>
    </edge>
    <edge id=":12001952420_1" function="internal">
        <lane id=":12001952420_1_0" index="0" disallow="tram rail_urban rail rail_electric rail_fast ship container cable_car subway aircraft wheelchair scooter drone" speed="13.89" length="32.12" shape="329.14,673.78 323.25,667.63 315.89,661.74 308.76,657.12 303.57,654.81"/>
    </edge>
    <edge id=":12001952420_2" function="internal">
        <lane id=":12001952420_2_0" index="0" disallow="tram rail_urban rail rail_electric rail_fast ship container cable_car subway aircraft wheelchair scooter drone" speed="13.89" length="35.01" shape="329.14,673.78 323.55,666.73 316.92,658.71 310.67,651.61 306.26,647.33"/>
    </edge>
    <edge id=":12001952420_3" function="internal">
        <lane id=":12001952420_3_0" index="0" disallow="tram rail_urban rail rail_electric rail_fast ship container cable_car subway aircraft wheelchair scooter drone" speed="7.34" length="7.06" shape="331.68,671.82 329.82,666.97 330.42,665.20"/>
    </edge>
    <edge id=":12001952420_20" function="internal">
        <lane id=":12001952420_20_0" index="0" disallow="tram rail_urban rail rail_electric rail_fast ship container cable_car subway aircraft wheelchair scooter drone" speed="7.34" length="12.69" shape="330.42,665.20 331.24,662.78 335.09,660.15 340.55,660.01"/>
    </edge>
    <edge id=":12001952420_4" function="internal">
        <lane id=":12001952420_4_0" index="0" disallow="tram rail_urban rail rail_electric rail_fast ship container cable_car subway aircraft wheelchair scooter drone" speed="5.46" length="10.13" shape="339.82,663.13 336.52,662.70 334.91,663.35 334.98,665.09 336.74,667.91"/>
    </edge>
    <edge id=":12001952420_5" function="internal">
        <lane id=":12001952420_5_0" index="0" disallow="tram rail_urban rail rail_electric rail_fast ship container cable_car subway aircraft wheelchair scooter drone" speed="10.10" length="24.05" shape="339.82,663.13 332.67,662.33 327.21,663.69 323.42,667.21 321.32,672.89"/>
    </edge>
    <edge id=":12001952420_6" function="internal">
        <lane id=":12001952420_6_0" index="0" disallow="tram rail_urban rail rail_electric rail_fast ship container cable_car subway aircraft wheelchair scooter drone" speed="13.89" length="37.19" shape="339.82,663.13 303.57,654.81"/>
    </edge>
    <edge id=":12001952420_7" function="internal">
        <lane id=":12001952420_7_0" index="0" disallow="tram rail_urban rail rail_electric rail_fast ship container cable_car subway aircraft wheelchair scooter drone" speed="13.89" length="37.14" shape="339.82,663.13 333.09,660.59 322.72,655.92 312.51,650.90 306.26,647.33"/>
    </edge>
    <edge id=":12001952420_8" function="internal">
        <lane id=":12001952420_8_0" index="0" disallow="tram rail_urban rail rail_electric rail_fast ship container cable_car subway aircraft wheelchair scooter drone" speed="13.89" length="35.85" shape="308.16,644.76 314.24,648.24 324.04,653.07 334.00,657.56 340.55,660.01"/>
    </edge>
    <edge id=":12001952420_9" function="internal">
        <lane id=":12001952420_9_0" index="0" disallow="tram rail_urban rail rail_electric rail_fast ship container cable_car subway aircraft wheelchair scooter drone" speed="13.89" length="36.86" shape="308.16,644.76 313.47,648.52 321.67,654.49 330.26,661.37 336.74,667.91"/>
    </edge>
    <edge id=":12001952420_10" function="internal">
        <lane id=":12001952420_10_0" index="0" disallow="tram rail_urban rail rail_electric rail_fast ship container cable_car subway aircraft wheelchair scooter drone" speed="13.89" length="17.42" shape="308.16,644.76 315.05,651.01 319.54,657.78"/>
    </edge>
    <edge id=":12001952420_11" function="internal">
        <lane id=":12001952420_11_0" index="0" disallow="tram rail_urban rail rail_electric rail_fast ship container cable_car subway aircraft wheelchair scooter drone" speed="6.19" length="3.29" shape="308.16,644.76 309.99,647.50"/>
    </edge>
    <edge id=":12001952420_21" function="internal">
        <lane id=":12001952420_21_0" index="0" disallow="tram rail_urban rail rail_electric rail_fast ship container cable_car subway aircraft wheelchair scooter drone" speed="13.89" length="15.41" shape="319.54,657.78 321.63,665.08 321.32,672.89"/>
    </edge>
    <edge id=":12001952420_22" function="internal">
        <lane id=":12001952420_22_0" index="0" disallow="tram rail_urban rail rail_electric rail_fast ship container cable_car subway aircraft wheelchair scooter drone" speed="6.19" length="11.89" shape="309.99,647.50 310.37,648.06 309.96,651.66 307.51,654.32 303.57,654.81"/>
    </edge>
    <edge id=":12001952420_12" function="internal">
        <lane id=":12001952420_12_0" index="0" disallow="tram rail_urban rail rail_electric rail_fast ship container cable_car subway aircraft wheelchair scooter drone" speed="5.69" length="12.52" shape="304.27,651.69 308.62,652.36 310.41,651.86 309.62,650.19 306.26,647.33"/>
    </edge>
    <edge id=":12001952420_13" function="internal">
        <lane id=":12001952420_13_0" index="0" disallow="tram rail_urban rail rail_electric rail_fast ship container cable_car subway aircraft wheelchair scooter drone" speed="13.89" length="37.23" shape="304.27,651.69 340.55,660.01"/>
    </edge>
    <edge id=":12001952420_14" function="internal">
        <lane id=":12001952420_14_0" index="0" disallow="tram rail_urban rail rail_electric rail_fast ship container cable_car subway aircraft wheelchair scooter drone" speed="13.89" length="35.34" shape="304.27,651.69 310.15,653.88 318.78,658.22 327.64,663.84 334.21,669.87"/>
    </edge>
    <edge id=":12001952420_15" function="internal">
        <lane id=":12001952420_15_0" index="0" disallow="tram rail_urban rail rail_electric rail_fast ship container cable_car subway aircraft wheelchair scooter drone" speed="11.70" length="30.70" shape="304.27,651.69 312.90,654.71 318.61,659.25 321.42,665.31 321.32,672.89"/>
    </edge>
    <edge id=":12001952420_16" function="internal">
        <lane id=":12001952420_16_0" index="0" disallow="tram rail_urban rail rail_electric rail_fast ship container cable_car subway aircraft wheelchair scooter drone" speed="10.74" length="25.68" shape="318.17,672.30 318.21,666.09 315.80,661.10 310.91,657.34 303.57,654.81"/>
    </edge>
    <edge id=":12001952420_17" function="internal">
        <lane id=":12001952420_17_0" index="0" disallow="tram rail_urban rail rail_electric rail_fast ship container cable_car subway aircraft wheelchair scooter drone" speed="13.86" length="29.24" shape="318.17,672.30 318.42,665.42 316.52,658.97 312.47,652.94 306.26,647.33"/>
    </edge>
    <edge id=":12001952420_18" function="internal">
        <lane id=":12001952420_18_0" index="0" disallow="tram rail_urban rail rail_electric rail_fast ship container cable_car subway aircraft wheelchair scooter drone" speed="11.12" length="29.38" shape="318.17,672.30 320.75,665.23 325.34,660.82 331.94,659.08 340.55,660.01"/>
    </edge>
    <edge id=":12001952420_19" function="internal">
        <lane id=":12001952420_19_0" index="0" disallow="tram rail_urban rail rail_electric rail_fast ship container cable_car subway aircraft wheelchair scooter drone" speed="7.86" length="21.27" shape="318.17,672.30 320.60,667.18 324.74,665.09 329.61,665.99 334.21,669.87"/>
    </edge>
    <edge id=":12486051343_0" function="internal">
        <lane id=":12486051343_0_0" index="0" disallow="tram rail_urban rail rail_electric rail_fast ship container cable_car subway aircraft wheelchair scooter drone" speed="16.67" length="10.60" shape="1790.15,848.22 1783.55,839.93"/>
        <lane id=":12486051343_0_1" index="1" disallow="tram rail_urban rail rail_electric rail_fast ship container cable_car subway aircraft wheelchair scooter drone" speed="16.67" length="10.60" shape="1792.66,846.22 1786.05,837.94"/>
        <lane id=":12486051343_0_2" index="2" disallow="tram rail_urban rail rail_electric rail_fast ship container cable_car subway aircraft wheelchair scooter drone" speed="16.67" length="10.60" shape="1795.16,844.23 1788.55,835.94"/>
    </edge>
    <edge id=":12486051343_3" function="internal">
        <lane id=":12486051343_3_0" index="0" disallow="tram rail_urban rail rail_electric rail_fast ship container cable_car subway aircraft wheelchair scooter drone" speed="5.36" length="5.43" shape="1795.16,844.23 1794.37,843.28 1793.31,841.91 1792.51,840.56 1792.48,839.67"/>
    </edge>
    <edge id=":12486051344_0" function="internal">
        <lane id=":12486051344_0_0" index="0" disallow="tram rail_urban rail rail_electric rail_fast ship container cable_car subway aircraft wheelchair scooter drone" speed="16.67" length="11.22" shape="1794.77,830.50 1801.99,839.10"/>
        <lane id=":12486051344_0_1" index="1" disallow="tram rail_urban rail rail_electric rail_fast ship container cable_car subway aircraft wheelchair scooter drone" speed="16.67" length="11.22" shape="1792.31,832.55 1799.52,841.14"/>
        <lane id=":12486051344_0_2" index="2" disallow="tram rail_urban rail rail_electric rail_fast ship container cable_car subway aircraft wheelchair scooter drone" speed="16.67" length="11.22" shape="1789.85,834.60 1797.06,843.18"/>
    </edge>
    <edge id=":12486051344_3" function="internal">
        <lane id=":12486051344_3_0" index="0" disallow="tram rail_urban rail rail_electric rail_fast ship container cable_car subway aircraft wheelchair scooter drone" speed="6.12" length="8.03" shape="1792.63,839.53 1794.18,838.59 1795.84,838.54 1797.62,839.39 1799.52,841.14"/>
        <lane id=":12486051344_3_1" index="1" disallow="tram rail_urban rail rail_electric rail_fast ship container cable_car subway aircraft wheelchair scooter drone" speed="5.35" length="5.88" shape="1792.63,839.53 1793.54,839.71 1794.87,840.82 1796.19,842.20 1797.06,843.18"/>
    </edge>
    <edge id=":12783406448_0" function="internal">
        <lane id=":12783406448_0_0" index="0" disallow="tram rail_urban rail rail_electric rail_fast ship container cable_car subway aircraft wheelchair scooter drone" speed="6.26" length="9.04" shape="739.98,1004.25 737.53,1003.63 735.57,1003.99 734.07,1005.32 733.06,1007.63"/>
    </edge>
    <edge id=":12783406448_1" function="internal">
        <lane id=":12783406448_1_0" index="0" disallow="tram rail_urban rail rail_electric rail_fast ship container cable_car subway aircraft wheelchair scooter drone" speed="13.89" length="15.81" shape="739.98,1004.25 725.36,998.25"/>
        <lane id=":12783406448_1_1" index="1" disallow="tram rail_urban rail rail_electric rail_fast ship container cable_car subway aircraft wheelchair scooter drone" speed="13.89" length="15.81" shape="741.20,1001.29 726.57,995.29"/>
    </edge>
    <edge id=":12783406448_3" function="internal">
        <lane id=":12783406448_3_0" index="0" disallow="tram rail_urban rail rail_electric rail_fast ship container cable_car subway aircraft wheelchair scooter drone" speed="9.28" length="3.98" shape="741.20,1001.29 737.85,999.14"/>
    </edge>
    <edge id=":12783406448_14" function="internal">
        <lane id=":12783406448_14_0" index="0" disallow="tram rail_urban rail rail_electric rail_fast ship container cable_car subway aircraft wheelchair scooter drone" speed="9.28" length="13.97" shape="737.85,999.14 737.60,998.99 735.53,995.67 734.99,991.35 735.98,986.02"/>
    </edge>
    <edge id=":12783406448_4" function="internal">
        <lane id=":12783406448_4_0" index="0" disallow="tram rail_urban rail rail_electric rail_fast ship container cable_car subway aircraft wheelchair scooter drone" speed="7.29" length="10.72" shape="739.05,986.94 738.68,989.65 739.32,991.96 740.98,993.87 743.64,995.38"/>
    </edge>
    <edge id=":12783406448_5" function="internal">
        <lane id=":12783406448_5_0" index="0" disallow="tram rail_urban rail rail_electric rail_fast ship container cable_car subway aircraft wheelchair scooter drone" speed="13.89" length="21.53" shape="739.05,986.94 733.06,1007.63"/>
    </edge>
    <edge id=":12783406448_6" function="internal">
        <lane id=":12783406448_6_0" index="0" disallow="tram rail_urban rail rail_electric rail_fast ship container cable_car subway aircraft wheelchair scooter drone" speed="8.52" length="17.40" shape="739.05,986.94 736.92,991.95 734.13,995.01 730.68,996.12 726.57,995.29"/>
    </edge>
    <edge id=":12783406448_7" function="internal">
        <lane id=":12783406448_7_0" index="0" disallow="tram rail_urban rail rail_electric rail_fast ship container cable_car subway aircraft wheelchair scooter drone" speed="6.31" length="9.04" shape="728.99,989.36 731.43,989.97 733.40,989.61 734.92,988.30 735.98,986.02"/>
    </edge>
    <edge id=":12783406448_8" function="internal">
        <lane id=":12783406448_8_0" index="0" disallow="tram rail_urban rail rail_electric rail_fast ship container cable_car subway aircraft wheelchair scooter drone" speed="13.89" length="15.84" shape="728.99,989.36 743.64,995.38"/>
        <lane id=":12783406448_8_1" index="1" disallow="tram rail_urban rail rail_electric rail_fast ship container cable_car subway aircraft wheelchair scooter drone" speed="13.89" length="15.84" shape="727.78,992.32 742.42,998.34"/>
    </edge>
    <edge id=":12783406448_10" function="internal">
        <lane id=":12783406448_10_0" index="0" disallow="tram rail_urban rail rail_electric rail_fast ship container cable_car subway aircraft wheelchair scooter drone" speed="9.33" length="4.00" shape="727.78,992.32 731.15,994.48"/>
    </edge>
    <edge id=":12783406448_15" function="internal">
        <lane id=":12783406448_15_0" index="0" disallow="tram rail_urban rail rail_electric rail_fast ship container cable_car subway aircraft wheelchair scooter drone" speed="9.33" length="13.95" shape="731.15,994.48 731.32,994.59 733.38,997.90 733.96,1002.24 733.06,1007.63"/>
    </edge>
    <edge id=":12783406448_11" function="internal">
        <lane id=":12783406448_11_0" index="0" disallow="tram rail_urban rail rail_electric rail_fast ship container cable_car subway aircraft wheelchair scooter drone" speed="7.36" length="10.78" shape="729.97,1006.77 730.31,1004.00 729.65,1001.66 728.00,999.74 725.36,998.25"/>
    </edge>
    <edge id=":12783406448_12" function="internal">
        <lane id=":12783406448_12_0" index="0" disallow="tram rail_urban rail rail_electric rail_fast ship container cable_car subway aircraft wheelchair scooter drone" speed="13.89" length="21.60" shape="729.97,1006.77 735.98,986.02"/>
    </edge>
    <edge id=":12783406448_13" function="internal">
        <lane id=":12783406448_13_0" index="0" disallow="tram rail_urban rail rail_electric rail_fast ship container cable_car subway aircraft wheelchair scooter drone" speed="8.48" length="17.55" shape="729.97,1006.77 732.02,1001.68 734.78,998.57 738.25,997.46 742.42,998.34"/>
    </edge>
    <edge id=":12783406461_0" function="internal">
        <lane id=":12783406461_0_0" index="0" disallow="tram rail_urban rail rail_electric rail_fast ship container cable_car subway aircraft wheelchair scooter drone" speed="15.28" length="0.30" shape="1559.89,1319.04 1560.00,1318.78"/>
        <lane id=":12783406461_0_1" index="1" disallow="tram rail_urban rail rail_electric rail_fast ship container cable_car subway aircraft wheelchair scooter drone" speed="15.28" length="0.30" shape="1562.85,1320.25 1562.97,1319.97"/>
        <lane id=":12783406461_0_2" index="2" disallow="tram rail_urban rail rail_electric rail_fast ship container cable_car subway aircraft wheelchair scooter drone" speed="15.28" length="0.30" shape="1565.82,1321.45 1565.94,1321.16"/>
    </edge>
    <edge id=":12783406478_0" function="internal">
        <lane id=":12783406478_0_0" index="0" disallow="tram rail_urban rail rail_electric rail_fast ship container cable_car subway aircraft wheelchair scooter drone" speed="6.45" length="9.03" shape="1217.77,1201.66 1215.36,1201.05 1213.35,1201.36 1211.74,1202.61 1210.54,1204.78"/>
    </edge>
    <edge id=":12783406478_1" function="internal">
        <lane id=":12783406478_1_0" index="0" disallow="tram rail_urban rail rail_electric rail_fast ship container cable_car subway aircraft wheelchair scooter drone" speed="13.89" length="14.68" shape="1217.77,1201.66 1204.20,1196.06"/>
        <lane id=":12783406478_1_1" index="1" disallow="tram rail_urban rail rail_electric rail_fast ship container cable_car subway aircraft wheelchair scooter drone" speed="13.89" length="14.68" shape="1218.99,1198.70 1205.42,1193.10"/>
    </edge>
    <edge id=":12783406478_3" function="internal">
        <lane id=":12783406478_3_0" index="0" disallow="tram rail_urban rail rail_electric rail_fast ship container cable_car subway aircraft wheelchair scooter drone" speed="8.77" length="3.79" shape="1218.99,1198.70 1215.82,1196.63"/>
    </edge>
    <edge id=":12783406478_14" function="internal">
        <lane id=":12783406478_14_0" index="0" disallow="tram rail_urban rail rail_electric rail_fast ship container cable_car subway aircraft wheelchair scooter drone" speed="8.77" length="13.27" shape="1215.82,1196.63 1215.64,1196.51 1213.88,1193.34 1213.71,1189.21 1215.12,1184.10"/>
    </edge>
    <edge id=":12783406478_4" function="internal">
        <lane id=":12783406478_4_0" index="0" disallow="tram rail_urban rail rail_electric rail_fast ship container cable_car subway aircraft wheelchair scooter drone" speed="6.64" length="9.34" shape="1218.10,1185.27 1217.53,1187.72 1217.89,1189.79 1219.19,1191.48 1221.43,1192.79"/>
    </edge>
    <edge id=":12783406478_5" function="internal">
        <lane id=":12783406478_5_0" index="0" disallow="tram rail_urban rail rail_electric rail_fast ship container cable_car subway aircraft wheelchair scooter drone" speed="13.89" length="20.92" shape="1218.10,1185.27 1210.54,1204.78"/>
    </edge>
    <edge id=":12783406478_6" function="internal">
        <lane id=":12783406478_6_0" index="0" disallow="tram rail_urban rail rail_electric rail_fast ship container cable_car subway aircraft wheelchair scooter drone" speed="8.64" length="16.94" shape="1218.10,1185.27 1215.65,1189.97 1212.72,1192.85 1209.31,1193.89 1205.42,1193.10"/>
    </edge>
    <edge id=":12783406478_7" function="internal">
        <lane id=":12783406478_7_0" index="0" disallow="tram rail_urban rail rail_electric rail_fast ship container cable_car subway aircraft wheelchair scooter drone" speed="6.47" length="9.03" shape="1207.86,1187.19 1210.26,1187.80 1212.28,1187.49 1213.89,1186.25 1215.12,1184.10"/>
    </edge>
    <edge id=":12783406478_8" function="internal">
        <lane id=":12783406478_8_0" index="0" disallow="tram rail_urban rail rail_electric rail_fast ship container cable_car subway aircraft wheelchair scooter drone" speed="13.89" length="14.68" shape="1207.86,1187.19 1221.43,1192.79"/>
        <lane id=":12783406478_8_1" index="1" disallow="tram rail_urban rail rail_electric rail_fast ship container cable_car subway aircraft wheelchair scooter drone" speed="13.89" length="14.68" shape="1206.64,1190.14 1220.21,1195.75"/>
    </edge>
    <edge id=":12783406478_10" function="internal">
        <lane id=":12783406478_10_0" index="0" disallow="tram rail_urban rail rail_electric rail_fast ship container cable_car subway aircraft wheelchair scooter drone" speed="8.81" length="3.76" shape="1206.64,1190.14 1209.78,1192.21"/>
    </edge>
    <edge id=":12783406478_15" function="internal">
        <lane id=":12783406478_15_0" index="0" disallow="tram rail_urban rail rail_electric rail_fast ship container cable_car subway aircraft wheelchair scooter drone" speed="8.81" length="13.30" shape="1209.78,1192.21 1209.95,1192.33 1211.71,1195.49 1211.90,1199.65 1210.54,1204.78"/>
    </edge>
    <edge id=":12783406478_11" function="internal">
        <lane id=":12783406478_11_0" index="0" disallow="tram rail_urban rail rail_electric rail_fast ship container cable_car subway aircraft wheelchair scooter drone" speed="6.69" length="9.40" shape="1207.55,1203.64 1208.10,1201.16 1207.73,1199.07 1206.43,1197.37 1204.20,1196.06"/>
    </edge>
    <edge id=":12783406478_12" function="internal">
        <lane id=":12783406478_12_0" index="0" disallow="tram rail_urban rail rail_electric rail_fast ship container cable_car subway aircraft wheelchair scooter drone" speed="13.89" length="20.96" shape="1207.55,1203.64 1215.12,1184.10"/>
    </edge>
    <edge id=":12783406478_13" function="internal">