<?xml version="1.0" encoding="UTF-8"?>

<!-- generated on 2026-03-28T11:42:34.659304+07:00 by Eclipse SUMO netconvert 1.25.0
<netconvertConfiguration xmlns:xsi="http://www.w3.org/2001/XMLSchema-instance" xsi:noNamespaceSchemaLocation="http://sumo.dlr.de/xsd/netconvertConfiguration.xsd">

    <input>
        <osm-files value="data/map.osm"/>
    </input>

    <output>
        <output-file value="network/map.net.xml"/>
    </output>

    <projection>
        <proj.utm value="true"/>
    </projection>

    <tls_building>
        <tls.guess value="true"/>
    </tls_building>

    <junctions>
        <junctions.join value="true"/>
    </junctions>

</netconvertConfiguration>
-->

<net version="1.20" junctionCornerDetail="5" limitTurnSpeed="5.50" xmlns:xsi="http://www.w3.org/2001/XMLSchema-instance" xsi:noNamespaceSchemaLocation="http://sumo.dlr.de/xsd/net_file.xsd">

    <location netOffset="-609600.77,-1105468.34" convBoundary="0.00,0.00,219.22,221.16" origBoundary="106.000000,9.999000,106.002000,10.001000" projParameter="+proj=utm +zone=48 +ellps=WGS84 +datum=WGS84 +units=m +no_defs"/>

    <type id="highway.primary" priority="12" numLanes="2" speed="27.78" disallow="tram rail_urban rail rail_electric rail_fast ship container cable_car subway aircraft wheelchair scooter drone" oneway="0"/>

    <edge id=":1_0" function="internal">
        <lane id=":1_0_0" index="0" disallow="tram rail_urban rail rail_electric rail_fast ship container cable_car subway aircraft wheelchair scooter drone" speed="3.65" length="4.67" shape="-0.00,111.85 -1.20,111.05 -1.60,110.25 -1.20,109.45 0.00,108.65"/>
    </edge>
    <edge id=":2_0" function="internal">
        <lane id=":2_0_0" index="0" disallow="tram rail_urban rail rail_electric rail_fast ship container cable_car subway aircraft wheelchair scooter drone" speed="6.51" length="9.03" shape="116.81,112.20 114.35,112.54 112.60,113.59 111.55,115.34 111.19,117.78"/>
    </edge>
    <edge id=":2_1" function="internal">
        <lane id=":2_1_0" index="0" disallow="tram rail_urban rail rail_electric rail_fast ship container cable_car subway aircraft wheelchair scooter drone" speed="27.78" length="14.40" shape="116.81,112.20 102.41,112.16"/>
    </edge>
    <edge id=":2_2" function="internal">
        <lane id=":2_2_0" index="0" disallow="tram rail_urban rail rail_electric rail_fast ship container cable_car subway aircraft wheelchair scooter drone" speed="8.00" length="4.07" shape="116.81,112.20 112.96,111.64 112.81,111.55"/>
    </edge>
    <edge id=":2_3" function="internal">
        <lane id=":2_3_0" index="0" disallow="tram rail_urban rail rail_electric rail_fast ship container cable_car subway aircraft wheelchair scooter drone" speed="3.65" length="1.44" shape="116.81,112.20 115.61,111.40"/>
    </edge>
    <edge id=":2_16" function="internal">
        <lane id=":2_16_0" index="0" disallow="tram rail_urban rail rail_electric rail_fast ship container cable_car subway aircraft wheelchair scooter drone" speed="8.00" length="10.13" shape="112.81,111.55 110.21,109.98 108.57,107.23 108.03,103.37"/>
    </edge>
    <edge id=":2_17" function="internal">
        <lane id=":2_17_0" index="0" disallow="tram rail_urban rail rail_electric rail_fast ship container cable_car subway aircraft wheelchair scooter drone" speed="3.65" length="3.23" shape="115.61,111.40 115.21,110.60 115.61,109.80 116.81,109.00"/>
    </edge>
    <edge id=":2_4" function="internal">
        <lane id=":2_4_0" index="0" disallow="tram rail_urban rail rail_electric rail_fast ship container cable_car subway aircraft wheelchair scooter drone" speed="6.51" length="9.03" shape="111.23,103.38 111.57,105.84 112.62,107.59 114.37,108.64 116.81,109.00"/>
    </edge>
    <edge id=":2_5" function="internal">
        <lane id=":2_5_0" index="0" disallow="tram rail_urban rail rail_electric rail_fast ship container cable_car subway aircraft wheelchair scooter drone" speed="27.78" length="14.40" shape="111.23,103.38 111.19,117.78"/>
    </edge>
    <edge id=":2_6" function="internal">
        <lane id=":2_6_0" index="0" disallow="tram rail_urban rail rail_electric rail_fast ship container cable_car subway aircraft wheelchair scooter drone" speed="8.00" length="14.19" shape="111.23,103.38 110.67,107.23 109.01,109.98 106.26,111.62 102.41,112.16"/>
    </edge>
    <edge id=":2_7" function="internal">
        <lane id=":2_7_0" index="0" disallow="tram rail_urban rail rail_electric rail_fast ship container cable_car subway aircraft wheelchair scooter drone" speed="3.65" length="4.67" shape="111.23,103.38 110.43,104.58 109.63,104.98 108.83,104.58 108.03,103.37"/>
    </edge>
    <edge id=":2_8" function="internal">
        <lane id=":2_8_0" index="0" disallow="tram rail_urban rail rail_electric rail_fast ship container cable_car subway aircraft wheelchair scooter drone" speed="6.51" length="9.03" shape="102.41,108.96 104.87,108.62 106.62,107.57 107.67,105.82 108.03,103.37"/>
    </edge>
    <edge id=":2_9" function="internal">
        <lane id=":2_9_0" index="0" disallow="tram rail_urban rail rail_electric rail_fast ship container cable_car subway aircraft wheelchair scooter drone" speed="27.78" length="14.40" shape="102.41,108.96 116.81,109.00"/>
    </edge>
    <edge id=":2_10" function="internal">
        <lane id=":2_10_0" index="0" disallow="tram rail_urban rail rail_electric rail_fast ship container cable_car subway aircraft wheelchair scooter drone" speed="8.00" length="4.07" shape="102.41,108.96 106.26,109.52 106.42,109.61"/>
    </edge>
    <edge id=":2_11" function="internal">
        <lane id=":2_11_0" index="0" disallow="tram rail_urban rail rail_electric rail_fast ship container cable_car subway aircraft wheelchair scooter drone" speed="3.65" length="1.44" shape="102.41,108.96 103.61,109.76"/>
    </edge>
    <edge id=":2_18" function="internal">
        <lane id=":2_18_0" index="0" disallow="tram rail_urban rail rail_electric rail_fast ship container cable_car subway aircraft wheelchair scooter drone" speed="8.00" length="10.13" shape="106.42,109.61 109.01,111.18 110.65,113.93 111.19,117.78"/>
    </edge>
    <edge id=":2_19" function="internal">
        <lane id=":2_19_0" index="0" disallow="tram rail_urban rail rail_electric rail_fast ship container cable_car subway aircraft wheelchair scooter drone" speed="3.65" length="3.23" shape="103.61,109.76 104.01,110.56 103.61,111.36 102.41,112.16"/>
    </edge>
    <edge id=":2_12" function="internal">
        <lane id=":2_12_0" index="0" disallow="tram rail_urban rail rail_electric rail_fast ship container cable_car subway aircraft wheelchair scooter drone" speed="6.51" length="9.03" shape="107.99,117.78 107.65,115.32 106.60,113.57 104.85,112.52 102.41,112.16"/>
    </edge>
    <edge id=":2_13" function="internal">
        <lane id=":2_13_0" index="0" disallow="tram rail_urban rail rail_electric rail_fast ship container cable_car subway aircraft wheelchair scooter drone" speed="27.78" length="14.40" shape="107.99,117.78 108.03,103.37"/>
    </edge>
    <edge id=":2_14" function="internal">
        <lane id=":2_14_0" index="0" disallow="tram rail_urban rail rail_electric rail_fast ship container cable_car subway aircraft wheelchair scooter drone" speed="8.00" length="14.19" shape="107.99,117.78 108.55,113.93 110.21,111.18 112.96,109.54 116.81,109.00"/>
    </edge>
    <edge id=":2_15" function="internal">
        <lane id=":2_15_0" index="0" disallow="tram rail_urban rail rail_electric rail_fast ship container cable_car subway aircraft wheelchair scooter drone" speed="3.65" length="4.67" shape="107.99,117.78 108.79,116.58 109.59,116.18 110.39,116.58 111.19,117.78"/>
    </edge>
    <edge id=":3_0" function="internal">
        <lane id=":3_0_0" index="0" disallow="tram rail_urban rail rail_electric rail_fast ship container cable_car subway aircraft wheelchair scooter drone" speed="3.65" length="4.67" shape="219.22,109.31 220.42,110.11 220.82,110.91 220.42,111.71 219.22,112.51"/>
    </edge>
    <edge id=":4_0" function="internal">
        <lane id=":4_0_0" index="0" disallow="tram rail_urban rail rail_electric rail_fast ship container cable_car subway aircraft wheelchair scooter drone" speed="3.65" length="4.67" shape="110.88,221.16 110.08,222.36 109.28,222.76 108.48,222.36 107.68,221.16"/>
    </edge>
    <edge id=":5_0" function="internal">
        <lane id=":5_0_0" index="0" disallow="tram rail_urban rail rail_electric rail_fast ship container cable_car subway aircraft wheelchair scooter drone" speed="3.65" length="4.67" shape="108.35,-0.00 109.15,-1.20 109.95,-1.60 110.75,-1.20 111.55,0.00"/>
    </edge>

    <edge id="-100#0" from="2" to="1" priority="12" type="highway.primary">
        <lane id="-100#0_0" index="0" disallow="tram rail_urban rail rail_electric rail_fast ship container cable_car subway aircraft wheelchair scooter drone" speed="27.78" length="102.41" shape="102.41,112.16 -0.00,111.85"/>
    </edge>
    <edge id="-100#1" from="3" to="2" priority="12" type="highway.primary">
        <lane id="-100#1_0" index="0" disallow="tram rail_urban rail rail_electric rail_fast ship container cable_car subway aircraft wheelchair scooter drone" speed="27.78" length="102.41" shape="219.22,112.51 116.81,112.20"/>
    </edge>
    <edge id="-101#0" from="2" to="4" priority="12" type="highway.primary">
        <lane id="-101#0_0" index="0" disallow="tram rail_urban rail rail_electric rail_fast ship container cable_car subway aircraft wheelchair scooter drone" speed="27.78" length="103.38" shape="111.19,117.78 110.88,221.16"/>
    </edge>
    <edge id="-101#1" from="5" to="2" priority="12" type="highway.primary">
        <lane id="-101#1_0" index="0" disallow="tram rail_urban rail rail_electric rail_fast ship container cable_car subway aircraft wheelchair scooter drone" speed="27.78" length="103.38" shape="111.55,0.00 111.23,103.38"/>
    </edge>
    <edge id="100#0" from="1" to="2" priority="12" type="highway.primary">
        <lane id="100#0_0" index="0" disallow="tram rail_urban rail rail_electric rail_fast ship container cable_car subway aircraft wheelchair scooter drone" speed="27.78" length="102.41" shape="0.00,108.65 102.41,108.96"/>
    </edge>
    <edge id="100#1" from="2" to="3" priority="12" type="highway.primary">
        <lane id="100#1_0" index="0" disallow="tram rail_urban rail rail_electric rail_fast ship container cable_car subway aircraft wheelchair scooter drone" speed="27.78" length="102.41" shape="116.81,109.00 219.22,109.31"/>
    </edge>
    <edge id="101#0" from="4" to="2" priority="12" type="highway.primary">
        <lane id="101#0_0" index="0" disallow="tram rail_urban rail rail_electric rail_fast ship container cable_car subway aircraft wheelchair scooter drone" speed="27.78" length="103.38" shape="107.68,221.16 107.99,117.78"/>
    </edge>
    <edge id="101#1" from="2" to="5" priority="12" type="highway.primary">
        <lane id="101#1_0" index="0" disallow="tram rail_urban rail rail_electric rail_fast ship container cable_car subway aircraft wheelchair scooter drone" speed="27.78" length="103.38" shape="108.03,103.37 108.35,-0.00"/>
    </edge>

    <junction id="1" type="priority" x="0.00" y="110.25" incLanes="-100#0_0" intLanes=":1_0_0" shape="-0.00,110.25 -0.01,113.45 -0.00,110.25">
        <request index="0" response="0" foes="0" cont="0"/>
    </junction>
    <junction id="2" type="priority" x="109.61" y="110.58" incLanes="-100#1_0 -101#1_0 100#0_0 101#0_0" intLanes=":2_0_0 :2_1_0 :2_16_0 :2_17_0 :2_4_0 :2_5_0 :2_6_0 :2_7_0 :2_8_0 :2_9_0 :2_18_0 :2_19_0 :2_12_0 :2_13_0 :2_14_0 :2_15_0" shape="116.80,113.80 116.82,107.40 114.60,106.95 113.82,106.39 113.27,105.61 112.94,104.61 112.83,103.39 106.43,103.37 105.98,105.59 105.42,106.37 104.64,106.92 103.64,107.25 102.42,107.36 102.40,113.76 104.62,114.21 105.40,114.77 105.95,115.55 106.28,116.55 106.39,117.77 112.79,117.79 113.24,115.57 113.80,114.79 114.58,114.24 115.58,113.91">
        <request index="0"  response="0000000000000000" foes="1000010000100000" cont="0"/>
        <request index="1"  response="0000000000000000" foes="0111110001100000" cont="0"/>
        <request index="2"  response="0000011100000000" foes="0110011111100000" cont="1"/>
        <request index="3"  response="0100001000010000" foes="0100001000010000" cont="1"/>
        <request index="4"  response="0000001000000000" foes="0100001000001000" cont="0"/>
        <request index="5"  response="0000011000000111" foes="1100011000000111" cont="0"/>
        <request index="6"  response="0111011000000110" foes="0111111000000110" cont="0"/>
        <request index="7"  response="0010000100000100" foes="0010000100000100" cont="0"/>
        <request index="8"  response="0000000000000000" foes="0010000010000100" cont="0"/>
        <request index="9"  response="0000000000000000" foes="0110000001111100" cont="0"/>
        <request index="10" response="0000000000000011" foes="1110000001100111" cont="1"/>
        <request index="11" response="0001000001000010" foes="0001000001000010" cont="1"/>
        <request index="12" response="0000000000000010" foes="0000100001000010" cont="0"/>
        <request index="13" response="0000011100000110" foes="0000011111000110" cont="0"/>
        <request index="14" response="0000011000110110" foes="0000011001111110" cont="0"/>
        <request index="15" response="0000010000100001" foes="0000010000100001" cont="0"/>
    </junction>
    <junction id="3" type="priority" x="219.22" y="110.91" incLanes="100#1_0" intLanes=":3_0_0" shape="219.22,110.91 219.23,107.71 219.22,110.91">
        <request index="0" response="0" foes="0" cont="0"/>
    </junction>
    <junction id="4" type="priority" x="109.28" y="221.16" incLanes="-101#0_0" intLanes=":4_0_0" shape="109.28,221.16 112.48,221.17 109.28,221.16">
        <request index="0" response="0" foes="0" cont="0"/>
    </junction>
    <junction id="5" type="priority" x="109.95" y="0.00" incLanes="101#1_0" intLanes=":5_0_0" shape="109.95,-0.00 106.75,-0.01 109.95,-0.00">
        <request index="0" response="0" foes="0" cont="0"/>
    </junction>

    <junction id=":2_16_0" type="internal" x="112.81" y="111.55" incLanes=":2_2_0 100#0_0" intLanes=":2_5_0 :2_6_0 :2_7_0 :2_8_0 :2_9_0 :2_13_0 :2_14_0"/>
    <junction id=":2_17_0" type="internal" x="115.61" y="111.40" incLanes=":2_3_0 -101#1_0 100#0_0 101#0_0" intLanes=":2_4_0 :2_9_0 :2_14_0"/>
    <junction id=":2_18_0" type="internal" x="106.42" y="109.61" incLanes=":2_10_0 -100#1_0" intLanes=":2_0_0 :2_1_0 :2_5_0 :2_6_0 :2_13_0 :2_14_0 :2_15_0"/>
    <junction id=":2_19_0" type="internal" x="103.61" y="109.76" incLanes=":2_11_0 -100#1_0 -101#1_0 101#0_0" intLanes=":2_1_0 :2_6_0 :2_12_0"/>

    <connection from="-100#0" to="100#0" fromLane="0" toLane="0" via=":1_0_0" dir="t" state="M"/>
    <connection from="-100#1" to="-101#0" fromLane="0" toLane="0" via=":2_0_0" dir="r" state="M"/>
    <connection from="-100#1" to="-100#0" fromLane="0" toLane="0" via=":2_1_0" dir="s" state="M"/>
    <connection from="-100#1" to="101#1" fromLane="0" toLane="0" via=":2_2_0" dir="l" state="m"/>
    <connection from="-100#1" to="100#1" fromLane="0" toLane="0" via=":2_3_0" dir="t" state="m"/>
    <connection from="-101#0" to="101#0" fromLane="0" toLane="0" via=":4_0_0" dir="t" state="M"/>
    <connection from="-101#1" to="100#1" fromLane="0" toLane="0" via=":2_4_0" dir="r" state="m"/>
    <connection from="-101#1" to="-101#0" fromLane="0" toLane="0" via=":2_5_0" dir="s" state="m"/>
    <connection from="-101#1" to="-100#0" fromLane="0" toLane="0" via=":2_6_0" dir="l" state="m"/>
    <connection from="-101#1" to="101#1" fromLane="0" toLane="0" via=":2_7_0" dir="t" state="m"/>
    <connection from="100#0" to="101#1" fromLane="0" toLane="0" via=":2_8_0" dir="r" state="M"/>
    <connection from="100#0" to="100#1" fromLane="0" toLane="0" via=":2_9_0" dir="s" state="M"/>
    <connection from="100#0" to="-101#0" fromLane="0" toLane="0" via=":2_10_0" dir="l" state="m"/>
    <connection from="100#0" to="-100#0" fromLane="0" toLane="0" via=":2_11_0" dir="t" state="m"/>
    <connection from="100#1" to="-100#1" fromLane="0" toLane="0" via=":3_0_0" dir="t" state="M"/>
    <connection from="101#0" to="-100#0" fromLane="0" toLane="0" via=":2_12_0" dir="r" state="m"/>
    <connection from="101#0" to="101#1" fromLane="0" toLane="0" via=":2_13_0" dir="s" state="m"/>
    <connection from="101#0" to="100#1" fromLane="0" toLane="0" via=":2_14_0" dir="l" state="m"/>
    <connection from="101#0" to="-101#0" fromLane="0" toLane="0" via=":2_15_0" dir="t" state="m"/>
    <connection from="101#1" to="-101#1" fromLane="0" toLane="0" via=":5_0_0" dir="t" state="M"/>

    <connection from=":1_0" to="100#0" fromLane="0" toLane="0" dir="t" state="M"/>
    <connection from=":2_0" to="-101#0" fromLane="0" toLane="0" dir="r" state="M"/>
    <connection from=":2_1" to="-100#0" fromLane="0" toLane="0" dir="s" state="M"/>
    <connection from=":2_2" to="101#1" fromLane="0" toLane="0" via=":2_16_0" dir="l" state="m"/>
    <connection from=":2_16" to="101#1" fromLane="0" toLane="0" dir="l" state="M"/>
    <connection from=":2_3" to="100#1" fromLane="0" toLane="0" via=":2_17_0" dir="t" state="m"/>
    <connection from=":2_17" to="100#1" fromLane="0" toLane="0" dir="t" state="M"/>
    <connection from=":2_4" to="100#1" fromLane="0" toLane="0" dir="r" state="M"/>
    <connection from=":2_5" to="-101#0" fromLane="0" toLane="0" dir="s" state="M"/>
    <connection from=":2_6" to="-100#0" fromLane="0" toLane="0" dir="l" state="M"/>
    <connection from=":2_7" to="101#1" fromLane="0" toLane="0" dir="t" state="M"/>
    <connection from=":2_8" to="101#1" fromLane="0" toLane="0" dir="r" state="M"/>
    <connection from=":2_9" to="100#1" fromLane="0" toLane="0" dir="s" state="M"/>
    <connection from=":2_10" to="-101#0" fromLane="0" toLane="0" via=":2_18_0" dir="l" state="m"/>
    <connection from=":2_18" to="-101#0" fromLane="0" toLane="0" dir="l" state="M"/>
    <connection from=":2_11" to="-100#0" fromLane="0" toLane="0" via=":2_19_0" dir="t" state="m"/>
    <connection from=":2_19" to="-100#0" fromLane="0" toLane="0" dir="t" state="M"/>
    <connection from=":2_12" to="-100#0" fromLane="0" toLane="0" dir="r" state="M"/>
    <connection from=":2_13" to="101#1" fromLane="0" toLane="0" dir="s" state="M"/>
    <connection from=":2_14" to="100#1" fromLane="0" toLane="0" dir="l" state="M"/>
    <connection from=":2_15" to="-101#0" fromLane="0" toLane="0" dir="t" state="M"/>
    <connection from=":3_0" to="-100#1" fromLane="0" toLane="0" dir="t" state="M"/>
    <connection from=":4_0" to="101#0" fromLane="0" toLane="0" dir="t" state="M"/>
    <connection from=":5_0" to="-101#1" fromLane="0" toLane="0" dir="t" state="M"/>

</net>
