<configuration>
    <input>
        <net-file value="../network/map.net.xml"/>
        <route-files value="../demand/routes.rou.xml"/>
    </input>
    <time>
        <begin value="0"/>
        <end value="3600"/>
    </time>
</configuration>
